outputs/ieee_118_barras/index_sheets/resultados_indices_barras_75_118.csv
Bus_ID,V_pu,Angle_deg,L_index,VCPI_bus
0,0.955,-47.453917558846214,0.0,85.071285836814
1,0.9605080450752941,-45.278545784265646,0.025010271467409226,30.12813510933444
2,0.954581949859037,-44.46770044622661,0.032070961983848706,28.995013670755466
3,0.9980000000000002,-33.76037037594008,0.0,113.82568341533667
4,0.999947254978176,-32.46151358448559,0.003910089410950864,0.999999999999957
5,0.9899999999999999,-40.098932348581386,0.0,147.37141798268956
6,0.9879601968726014,-41.29040587129636,0.006849520044374031,72.47787804997826
7,1.015,-18.836102658426917,0.0,28.35547997226332
8,0.9823097770989752,1.7843038995884235,7.993831056614612e-15,1.0000000000004186
9,1.05,23.025649220873387,0.0,18.237460791615085
10,0.967872392218672,-40.76449769906161,0.03731451458663496,70.5155113485764
11,0.99,-42.27007608801983,0.0,37.99780133266883
12,0.9266283747800986,-44.532073144102284,0.09798780363987387,27.96165424170909
13,0.9786545083383497,-44.11774636247251,0.021020884590468955,11.291845186934701
14,0.9700000000000002,-44.945153267091825,0.0,28.678048093829357
15,0.9612605054454809,-42.751261397696474,0.04719148462142153,22.27417910535315
16,0.9786717899404993,-37.20410637250494,0.005806561645583902,0.964818163391186
17,0.973,-43.999980782025645,0.0,147.9480938264177
18,0.962,-45.48770643201482,0.0,23.709659480959616
19,0.8914139021686486,-42.78739205714831,0.11213968982283215,23.446694158664297
20,0.8597762220714287,-37.65264472568591,0.14615983405488317,24.448449623248464
21,0.8681027150410572,-29.16519933620447,0.12224372850040452,11.638490635924589
22,0.9608678078328737,-13.953487745537952,0.01915083810941355,1.4242701797999429
23,0.992,-12.558918476324259,0.0,8.178297006291759
24,1.05,4.297715605852241,0.0,4.907720613026556
25,1.0150000000000001,9.014707611158373,0.0,11.935334283844908
26,0.9680000000000002,-33.78589187927165,0.0,22.915317522011687
27,0.9476238276856698,-38.35539805117686,0.03832302122923928,23.44776842346604
28,0.9548212325509923,-41.0270375262295,0.028054232456881947,43.744811724435166
29,0.9225669616250183,-22.549813654416248,0.0030806447285780473,0.9999999999957445
30,0.9670000000000002,-40.73356650309189,0.0,33.805610639305385
31,0.9630000000000001,-35.10247974057178,0.0,17.32568200297521
32,0.9431681736217338,-45.26413493582161,0.05356678355846581,21.044524744897192
33,0.984,-42.48667876609811,0.0,14.230045406455897
34,0.975025502665814,-43.699843608316854,0.009171899213552012,119.52282041595342
35,0.9799999999999999,-43.78879213231936,0.0,253.2217005591162
36,0.9735991488358233,-40.79922654582433,0.005612198688970766,0.9999999999999891
37,0.8708102440891318,-25.34236516792921,0.004093969130533363,0.9999999999931602
38,0.9461715559293499,-50.00604396913338,0.03672047229351203,40.073331630175836
39,0.9699999999999998,-52.87974442760035,0.0,40.583620047584716
40,0.9524323790809075,-53.52763825425275,0.041705864127810334,47.601338607643775
41,0.9849999999999999,-47.82877326980275,0.0,27.28865976380198
42,0.8949119121507114,-40.54521743067526,0.15801467033912506,12.04292844332511
43,0.8543533389427221,-29.10240749200943,0.23753325725538285,4.219808394126558
44,0.8750532845133037,-22.083906377050607,0.196361031784649,12.839723696228264
45,1.005,-13.784297887589966,0.0,8.832845912274928
46,0.9841519035210263,-5.594907485171681,0.03532803760984206,15.665240062877018
47,1.006717953467248,-8.698314186651494,0.025264133445394042,2.9561417869957065
48,1.025,-5.9823018503615994,0.0,22.78936097237541
49,0.9800556398146274,-11.724367483184126,0.03772960828316521,18.280235307065254
50,0.9122016620788708,-19.360130427259655,0.105442255922377,17.64970907384242
51,0.8923325185162512,-22.251342699648138,0.13921864921218596,22.466213317028185
52,0.8960128187881428,-25.22992685633977,0.11930380645543363,23.01074243700161
53,0.955,-22.783391979148522,0.0,15.90045419737396
54,0.9520000000000001,-23.554437410974295,0.0,46.116275915035516
55,0.9539999999999998,-23.078263051376737,0.0,32.06595638631726
56,0.9504046347262344,-19.299184991596736,0.0378381105592096,12.392019989226485
57,0.9216959665030211,-21.800444002601076,0.076659733069528,18.053128787642546
58,0.9850000000000001,-9.623203944026342,0.0,3.1998535876739105
59,0.9885190599608173,1.398098622542734,0.02178383594060973,63.07146154025747
60,0.995,3.844295232674763,0.0,7.181021304112801
61,0.9980000000000002,2.110409256603339,0.0,37.32684857247387
62,0.949747077242505,0.25494372515032493,2.7388760038299757e-15,0.9999999999999262
63,0.9699831937324463,5.6084983037228255,2.334249381150125e-15,0.9999999999994929
64,1.005,15.378705774557513,0.0,10.958555470957876
65,1.0499999999999998,13.575167416694654,0.0,4.457864293676743
66,1.0027584455987866,6.250968513549118,0.04224118347551246,25.9867055471201
67,1.0023645214723083,17.47831994015966,5.903356067771781e-15,0.9999999999981947
68,1.035,29.999999999999993,0.0,9.321963079562488
69,0.984,1.781013373037066,0.0,16.396462081734736
70,0.985561343893628,-0.1714514581472677,6.79824884735271e-15,1.0000000000114195
71,0.9799999999999999,-7.962031167519171,0.0,7.17485798738716
72,0.991,-0.6693984070612798,0.0,37.68306041431404
73,0.958,-0.9237566120948856,0.0,15.68738242354746
74,0.9349038890984419,3.640302659484838,0.03901374607723541,12.37375803771335
75,0.9430000000000002,-1.3946404493994418,0.0,87.0887319560145
76,1.006,13.432050983115198,0.0,20.278970085062287
77,0.9886312943818882,12.69579239256786,0.034668645074990546,213.28779916988057
78,0.9843979600060947,13.578869033055808,0.05142623939193917,5.881636826463108
79,1.04,19.507785870065653,0.0,4.50845250990551
80,0.9964405005752776,18.263327195956816,3.591886533594182e-15,0.9999999999999972
81,0.9270580962892394,12.594543262473108,0.13380173525019462,6.079664181755761
82,0.9280473520896935,15.02674272485098,0.1161912111598359,4.239628228903986
83,0.9503484158920609,20.212570052060716,0.055243302624592726,19.466775019037193
84,0.9850000000000001,23.412514596257594,0.0,20.162067865050684
85,0.9653205941440209,20.099302310760272,0.05253625994638042,17.846118793282617
86,1.015,20.99864684014272,0.0,11.011205986375273
87,0.9615594081112628,31.301088876113777,0.0598728313561641,59.453471576348804
88,1.0050000000000001,41.889564180593105,0.0,98.76243885675909
89,0.9849999999999998,23.980853218747477,0.0,52.41882256491646
90,0.9800000000000001,24.136000587385155,0.0,10.347647807012613
91,0.99,26.240067652787125,0.0,22.006220408942127
92,0.9465408840217004,19.283074942900125,0.07005078864468607,19.70040563857717
93,0.9392957664827196,14.217482518074611,0.09994175319290267,12.784492009795448
94,0.9043321362440647,12.241606179180646,0.16193653967558594,129.83601098788142
95,0.93044741292325,12.932177425952311,0.1358337623802045,14.713614543927102
96,0.9682741571967493,15.345650538496354,0.08989040639348067,19.446524282344622
97,1.0026113510029897,13.404153898236585,0.06344181790962418,23.86733452767992
98,1.01,10.309795991762517,0.0,28.603158909892112
99,1.0170000000000001,11.72195070687396,0.0,31.346665847426717
100,0.9576734155967518,15.505708461553237,0.06068766785688611,24.096001085545215
101,0.9720874981166002,22.481240620620284,0.026080670336961514,6.936725880551129
102,1.0100000000000002,0.5975841061435724,0.0,16.1828861904234
103,0.9710000000000001,-7.670692906604978,0.0,21.242825184405433
104,0.9649999999999999,-10.974499039696086,0.0,4.508553326177513
105,0.9310213490577371,-11.390871308963595,0.05152595507005882,22.293085116203194
106,0.9519999999999998,-19.778661604024848,0.0,14.659009845060064
107,0.9601953196982644,-14.174544824648175,0.010845841116762041,4.559048040510244
108,0.9602061821751784,-15.403968527466535,0.013316401669936187,17.27463134909087
109,0.973,-17.74090325040582,0.0,8.56086412870209
110,0.9800000000000001,-13.230387246789466,0.0,100.13487340505112
111,0.9750000000000001,-26.018023269060855,0.0,67.80865887798377
112,0.9930000000000001,-37.4974584312599,0.0,23.542542162933977
113,0.9503886935121257,-36.036581176635146,0.03061929277531978,25.897475452830154
114,0.9495494961258474,-36.06836449862302,0.033191359267430214,59.84474110711728
115,1.005,16.338007533636347,0.0,60.155792756648054
116,0.939801084953554,-46.42997933398725,0.0928284794909759,35.61051377745677
117,0.9195817847593227,-0.013915965982935053,0.0510405613059968,88.21053699999119
